Version 4
SHEET 1 1796 756
WIRE -144 -640 -256 -640
WIRE -96 -640 -144 -640
WIRE -48 -640 -96 -640
WIRE 96 -640 32 -640
WIRE 144 -640 96 -640
WIRE -256 -608 -256 -640
WIRE -144 -608 -144 -640
WIRE 32 -608 32 -640
WIRE 144 -608 144 -640
WIRE -496 -304 -928 -304
WIRE -864 -256 -896 -256
WIRE -928 -240 -928 -304
WIRE -928 -240 -1104 -240
WIRE -896 -224 -896 -256
WIRE -1104 -208 -1104 -240
WIRE -928 -192 -928 -240
WIRE -608 -176 -656 -176
WIRE -560 -176 -608 -176
WIRE -864 -160 -864 -256
WIRE -784 -160 -864 -160
WIRE 448 -160 384 -160
WIRE 800 -160 528 -160
WIRE -608 -144 -656 -144
WIRE -560 -144 -608 -144
WIRE -1280 -128 -1360 -128
WIRE -1136 -128 -1200 -128
WIRE -1104 -128 -1104 -144
WIRE -1104 -128 -1136 -128
WIRE -1056 -128 -1104 -128
WIRE -784 -128 -848 -128
WIRE -1360 -112 -1360 -128
WIRE -1056 -112 -1056 -128
WIRE -1008 -112 -1056 -112
WIRE -928 -112 -944 -112
WIRE -848 -112 -848 -128
WIRE -848 -112 -928 -112
WIRE -496 -112 -496 -304
WIRE -496 -112 -656 -112
WIRE 800 -32 800 -160
WIRE 896 -32 800 -32
WIRE -1136 -16 -1136 -48
WIRE 592 -16 560 -16
WIRE 224 0 160 0
WIRE 384 0 384 -160
WIRE 384 0 304 0
WIRE 432 0 384 0
WIRE -1360 16 -1360 -32
WIRE 592 16 560 16
WIRE -352 32 -432 32
WIRE -192 32 -272 32
WIRE -160 32 -192 32
WIRE 432 32 384 32
WIRE 896 32 896 -32
WIRE 160 48 160 0
WIRE 656 48 560 48
WIRE 800 48 800 -32
WIRE 800 48 752 48
WIRE -496 64 -496 -112
WIRE -496 64 -656 64
WIRE 64 112 0 112
WIRE 224 112 64 112
WIRE 384 112 384 32
WIRE 384 112 304 112
WIRE 400 112 384 112
WIRE 656 128 656 48
WIRE 672 128 672 48
WIRE 672 128 656 128
WIRE -432 160 -432 32
WIRE -432 160 -464 160
WIRE -336 160 -432 160
WIRE -160 160 -272 160
WIRE -48 160 -160 160
WIRE -656 176 -656 64
WIRE -544 176 -544 160
WIRE -544 176 -656 176
WIRE 896 176 896 112
WIRE -336 192 -784 192
WIRE -144 192 -272 192
WIRE -96 192 -144 192
WIRE 400 192 400 112
WIRE 448 192 400 192
WIRE 672 192 672 128
WIRE 672 192 528 192
WIRE -480 224 -544 224
WIRE -336 224 -480 224
WIRE -480 256 -528 256
WIRE -336 256 -480 256
WIRE -176 256 -272 256
WIRE -784 272 -784 192
WIRE 416 336 352 336
WIRE 768 336 496 336
WIRE -704 352 -800 352
WIRE -176 352 -176 256
WIRE -176 352 -624 352
WIRE -48 352 -48 160
WIRE -48 352 -96 352
WIRE -800 400 -800 352
WIRE 768 416 768 336
WIRE 896 416 896 240
WIRE 896 416 768 416
WIRE 896 432 896 416
WIRE 560 480 528 480
WIRE 192 496 128 496
WIRE 352 496 352 336
WIRE 352 496 272 496
WIRE 400 496 352 496
WIRE 560 512 528 512
WIRE 400 528 352 528
WIRE 128 544 128 496
WIRE 624 544 528 544
WIRE 768 544 768 416
WIRE 768 544 720 544
WIRE 768 576 768 544
WIRE -48 608 -48 352
WIRE 192 608 -48 608
WIRE 352 608 352 528
WIRE 352 608 272 608
WIRE 368 608 352 608
WIRE 624 624 624 544
WIRE 640 624 640 544
WIRE 640 624 624 624
WIRE 368 688 368 608
WIRE 416 688 368 688
WIRE 640 688 640 624
WIRE 640 688 496 688
FLAG 592 -16 VDD
FLAG 592 16 VSS
FLAG 160 48 0
FLAG -144 -528 0
FLAG 32 -528 0
FLAG -96 -640 VDD
FLAG 96 -640 VSS
FLAG -256 -544 0
FLAG 144 -544 0
FLAG -608 -176 VDD
FLAG -608 -144 VSS
FLAG -1136 -16 0
FLAG -896 -224 0
FLAG 560 480 VDD
FLAG 560 512 VSS
FLAG 128 544 0
FLAG -480 224 VDD
FLAG -144 192 VSS
FLAG -480 256 Vo+
FLAG -192 32 Vo+
FLAG 64 112 Vo+
FLAG -160 160 Vo-
FLAG -800 400 0
FLAG -1360 16 0
FLAG -784 272 0
SYMBOL res 320 -16 R90
WINDOW 0 0 56 VBottom 2
WINDOW 3 32 56 VTop 2
SYMATTR InstName R1
SYMATTR Value 100K
SYMATTR SpiceLine tol=1 pwr=0.1
SYMBOL res 320 96 R90
WINDOW 0 0 56 VBottom 2
WINDOW 3 32 56 VTop 2
SYMATTR InstName R2
SYMATTR Value 97.6K
SYMATTR SpiceLine tol=1 pwr=0.1
SYMBOL res 544 -176 R90
WINDOW 0 0 56 VBottom 2
WINDOW 3 32 56 VTop 2
SYMATTR InstName R3
SYMATTR Value 97.6K
SYMATTR SpiceLine tol=1 pwr=0.1
SYMBOL res 544 176 R90
WINDOW 0 0 56 VBottom 2
WINDOW 3 32 56 VTop 2
SYMATTR InstName R4
SYMATTR Value 97.6K
SYMATTR SpiceLine tol=1 pwr=0.1
SYMBOL res 768 32 R90
WINDOW 0 0 56 VBottom 2
WINDOW 3 32 56 VTop 2
SYMATTR InstName R5
SYMATTR Value {X}
SYMATTR SpiceLine tol=1 pwr=0.1
SYMBOL voltage -144 -624 R0
WINDOW 123 0 0 Left 2
WINDOW 39 0 0 Left 2
SYMATTR InstName V1
SYMATTR Value 15
SYMBOL voltage 32 -624 R0
WINDOW 123 0 0 Left 2
WINDOW 39 0 0 Left 2
SYMATTR InstName V2
SYMATTR Value -15
SYMBOL cap -272 -608 R0
SYMATTR InstName C3
SYMATTR Value 0.1µ
SYMBOL cap 128 -608 R0
SYMATTR InstName C4
SYMATTR Value 0.1µ
SYMBOL res -1184 -144 R90
WINDOW 0 0 56 VBottom 2
WINDOW 3 32 56 VTop 2
SYMATTR InstName R9
SYMATTR Value 5.11K
SYMATTR SpiceLine tol=1 pwr=0.1
SYMBOL res -1120 -32 R180
WINDOW 0 36 76 Left 2
WINDOW 3 36 40 Left 2
SYMATTR InstName R10
SYMATTR Value 221
SYMATTR SpiceLine tol=1 pwr=0.1
SYMBOL cap -944 -128 R90
WINDOW 0 0 32 VBottom 2
WINDOW 3 32 32 VTop 2
SYMATTR InstName C5
SYMATTR Value 68p
SYMBOL cap -1120 -208 R0
SYMATTR InstName C6
SYMATTR Value 0.0015µ
SYMBOL res -944 -208 R0
SYMATTR InstName R11
SYMATTR Value 121K
SYMATTR SpiceLine tol=1 pwr=0.1
SYMBOL AutoGenerated\\ADA4625 -720 -144 R0
SYMATTR InstName U3
SYMBOL res 288 480 R90
WINDOW 0 0 56 VBottom 2
WINDOW 3 32 56 VTop 2
SYMATTR InstName R6
SYMATTR Value 100K
SYMATTR SpiceLine tol=1 pwr=0.1
SYMBOL res 288 592 R90
WINDOW 0 0 56 VBottom 2
WINDOW 3 32 56 VTop 2
SYMATTR InstName R7
SYMATTR Value 97.6K
SYMATTR SpiceLine tol=1 pwr=0.1
SYMBOL res 512 320 R90
WINDOW 0 0 56 VBottom 2
WINDOW 3 32 56 VTop 2
SYMATTR InstName R8
SYMATTR Value 97.6K
SYMATTR SpiceLine tol=1 pwr=0.1
SYMBOL res 512 672 R90
WINDOW 0 0 56 VBottom 2
WINDOW 3 32 56 VTop 2
SYMATTR InstName R12
SYMATTR Value 97.6K
SYMATTR SpiceLine tol=1 pwr=0.1
SYMBOL res 736 528 R90
WINDOW 0 0 56 VBottom 2
WINDOW 3 32 56 VTop 2
SYMATTR InstName R13
SYMATTR Value {X}
SYMATTR SpiceLine tol=1 pwr=0.1
SYMBOL res -448 144 R90
WINDOW 0 0 56 VBottom 2
WINDOW 3 32 56 VTop 2
SYMATTR InstName R14
SYMATTR Value 374
SYMATTR SpiceLine tol=1 pwr=0.1
SYMBOL res -256 16 R90
WINDOW 0 0 56 VBottom 2
WINDOW 3 32 56 VTop 2
SYMATTR InstName R15
SYMATTR Value 1.5K
SYMATTR SpiceLine tol=1 pwr=0.1
SYMBOL res -608 336 R90
WINDOW 0 0 56 VBottom 2
WINDOW 3 32 56 VTop 2
SYMATTR InstName R16
SYMATTR Value 374
SYMATTR SpiceLine tol=1 pwr=0.1
SYMBOL res -80 336 R90
WINDOW 0 0 56 VBottom 2
WINDOW 3 32 56 VTop 2
SYMATTR InstName R17
SYMATTR Value 1.5K
SYMATTR SpiceLine tol=1 pwr=0.1
SYMBOL voltage -1360 -128 R0
WINDOW 3 24 44 Invisible 2
WINDOW 123 0 0 Left 0
WINDOW 39 0 0 Left 0
SYMATTR Value PWL file="C:\Users\Chris\Desktop\PHD_files\EIT spice LT\PWL Files\Voltage_Inputs\Vin_fsin=15000Hz_16Bits_Fs=240000Hz.txt"
SYMATTR InstName V3
SYMBOL res 880 16 R0
SYMATTR InstName R18
SYMATTR Value 300
SYMBOL cap 880 176 R0
SYMATTR InstName C1
SYMATTR Value 0.1µ
SYMBOL AutoGenerated\\ADA4625 496 16 R0
SYMATTR InstName U1
SYMBOL AutoGenerated\\ADA4625 464 512 R0
SYMATTR InstName U2
SYMBOL AutoGenerated\\THS4130 -304 208 R0
SYMATTR InstName U4
TEXT -96 248 Left 2 ;Multiple Feedback Filter for 100kHz
TEXT -1384 48 Left 2 !;ac dec 10 10k 1Meg
TEXT -1392 736 Left 2 !.tran 0.0002
TEXT 1016 -16 Left 2 !.step param X list 2.25k 2.49k 3k  4k 5k 6k
TEXT 144 -296 Left 2 !;noise V(n003) V3 dec 10 1 1Meg
